data_atlas_grid
_cell_length_a   18.000
_cell_length_b   18.000
_cell_length_c   6.000
_cell_angle_alpha   90
_cell_angle_beta    90
_cell_angle_gamma   90
_symmetry_space_group_name_H-M   'P 1'

loop_
 _atom_site_label
 _atom_site_type_symbol
 _atom_site_fract_x
 _atom_site_fract_y
 _atom_site_fract_z
 C1  C  0.1000  0.1000  0.5000
 C2  C  0.4000  0.1000  0.5000
 C3  C  0.1000  0.4000  0.5000
 C4  C  0.4000  0.4000  0.5000
 N1  N  0.2500  0.2500  0.5000
 O1  O  0.2500  0.1000  0.3500
 O2  O  0.1000  0.2500  0.6500
 H1  H  0.2500  0.4000  0.3500
 H2  H  0.4000  0.2500  0.6500
