data_nautilus_channel
_cell_length_a   14.500
_cell_length_b   26.000
_cell_length_c   9.500
_cell_angle_alpha   90
_cell_angle_beta    90
_cell_angle_gamma   120
_symmetry_space_group_name_H-M   'P 1'

loop_
 _atom_site_label
 _atom_site_type_symbol
 _atom_site_fract_x
 _atom_site_fract_y
 _atom_site_fract_z
 C1  C  0.1500  0.0500  0.2500
 C2  C  0.3500  0.2500  0.2500
 C3  C  0.1500  0.4500  0.2500
 C4  C  0.3500  0.6500  0.2500
 N1  N  0.2500  0.1500  0.7500
 N2  N  0.2500  0.5500  0.7500
 O1  O  0.0500  0.2500  0.5000
 O2  O  0.4500  0.2500  0.5000
 H1  H  0.2500  0.0500  0.1500
 H2  H  0.2500  0.7500  0.8500
