data_S4_PORP_CHO_I_H-L2_BDTP_NH2_CN_H-SQL_A-AA

_audit_creation_date     2025-09-12
_audit_creation_method   pyCOFBuilder

_chemical_name_common                  'S4_PORP_CHO_I_H-L2_BDTP_NH2_CN_H-SQL_A-AA'
_cell_length_a                           29.190145
_cell_length_b                           29.898929
_cell_length_c                            3.600000
_cell_angle_alpha                        90.00
_cell_angle_beta                         90.00
_cell_angle_gamma                        90.00
_space_group_name_H-M_alt               'P 1'
_space_group_IT_number                  1

loop_
_symmetry_equiv_pos_as_xyz
   'x, y, z'

loop_
   _atom_site_label
   _atom_site_type_symbol
   _atom_site_fract_x
   _atom_site_fract_y
   _atom_site_fract_z
   _atom_site_charge
H0                 H     0.462947943     0.993658703     0.500000000    0.00000
H1                 H     0.534798805     0.007711986     0.500000000    0.00000
H2                 H     0.578345707     0.174506022     0.500000000    0.00000
H3                 H     0.422820518     0.827180056     0.500000000    0.00000
H4                 H     0.675695472     0.924732787     0.500000000    0.00000
H5                 H     0.321558701     0.080113360     0.500000000    0.00000
H6                 H     0.662130983     0.078900042     0.500000000    0.00000
H7                 H     0.334508385     0.921979066     0.500000000    0.00000
H8                 H     0.579203521     0.839267422     0.500000000    0.00000
H9                 H     0.417266604     0.160339669     0.500000000    0.00000
H10                H     0.962947943     0.493658703     0.500000000    0.00000
H11                H     0.034798805     0.507711986     0.500000000    0.00000
H12                H     0.078345707     0.674506022     0.500000000    0.00000
H13                H     0.922820518     0.327180056     0.500000000    0.00000
H14                H     0.175695472     0.424732787     0.500000000    0.00000
H15                H     0.821558701     0.580113360     0.500000000    0.00000
H16                H     0.162130983     0.578900042     0.500000000    0.00000
H17                H     0.834508385     0.421979066     0.500000000    0.00000
H18                H     0.079203521     0.339267422     0.500000000    0.00000
H19                H     0.917266604     0.660339669     0.500000000    0.00000
H20                H     0.266911072     0.369688914     0.500000000    0.00000
H21                H     0.233088928     0.130311086     0.500000000    0.00000
H22                H     0.627845764     0.269376394     0.500000000    0.00000
H23                H     0.872154236     0.230623606     0.500000000    0.00000
H24                H     0.766911072     0.869688914     0.500000000    0.00000
H25                H     0.733088928     0.630311086     0.500000000    0.00000
H26                H     0.127845764     0.769376394     0.500000000    0.00000
H27                H     0.372154236     0.730623606     0.500000000    0.00000
C28                C     0.393680390     0.019772168     0.500000000    0.00000
C29                C     0.349514182     0.994479016     0.500000000    0.00000
C30                C     0.358591978     0.950240980     0.500000000    0.00000
C31                C     0.409329637     0.943510040     0.500000000    0.00000
C32                C     0.432283793     0.904036924     0.500000000    0.00000
C33                C     0.399288158     0.064831700     0.500000000    0.00000
C34                C     0.442683218     0.087680311     0.500000000    0.00000
C35                C     0.446842157     0.137583388     0.500000000    0.00000
C36                C     0.492152815     0.147132472     0.500000000    0.00000
C37                C     0.517472341     0.103781845     0.500000000    0.00000
C38                C     0.481345275     0.899271853     0.500000000    0.00000
C39                C     0.504873532     0.854784103     0.500000000    0.00000
C40                C     0.550455177     0.863012611     0.500000000    0.00000
C41                C     0.556715820     0.912539990     0.500000000    0.00000
C42                C     0.563474050     0.098469639     0.500000000    0.00000
C43                C     0.597071359     0.934742778     0.500000000    0.00000
C44                C     0.588504622     0.057040241     0.500000000    0.00000
C45                C     0.636910949     0.051599307     0.500000000    0.00000
C46                C     0.646347199     0.005614448     0.500000000    0.00000
C47                C     0.603823408     0.982388527     0.500000000    0.00000
C48                C     0.594205038     0.140746984     0.500000000    0.00000
C49                C     0.404613462     0.859790500     0.500000000    0.00000
C50                C     0.642112108     0.907285598     0.500000000    0.00000
C51                C     0.356294922     0.095257063     0.500000000    0.00000
C52                C     0.893680390     0.519772168     0.500000000    0.00000
C53                C     0.849514182     0.494479016     0.500000000    0.00000
C54                C     0.858591978     0.450240980     0.500000000    0.00000
C55                C     0.909329637     0.443510040     0.500000000    0.00000
C56                C     0.932283793     0.404036924     0.500000000    0.00000
C57                C     0.899288158     0.564831700     0.500000000    0.00000
C58                C     0.942683218     0.587680311     0.500000000    0.00000
C59                C     0.946842157     0.637583388     0.500000000    0.00000
C60                C     0.992152815     0.647132472     0.500000000    0.00000
C61                C     0.017472341     0.603781845     0.500000000    0.00000
C62                C     0.981345275     0.399271853     0.500000000    0.00000
C63                C     0.004873532     0.354784103     0.500000000    0.00000
C64                C     0.050455177     0.363012611     0.500000000    0.00000
C65                C     0.056715820     0.412539990     0.500000000    0.00000
C66                C     0.063474050     0.598469639     0.500000000    0.00000
C67                C     0.097071359     0.434742778     0.500000000    0.00000
C68                C     0.088504622     0.557040241     0.500000000    0.00000
C69                C     0.136910949     0.551599307     0.500000000    0.00000
C70                C     0.146347199     0.505614448     0.500000000    0.00000
C71                C     0.103823408     0.482388527     0.500000000    0.00000
C72                C     0.094205038     0.640746984     0.500000000    0.00000
C73                C     0.904613462     0.359790500     0.500000000    0.00000
C74                C     0.142112108     0.407285598     0.500000000    0.00000
C75                C     0.856294922     0.595257063     0.500000000    0.00000
C76                C     0.216092757     0.285009246     0.500000000    0.00000
C77                C     0.205378455     0.239272168     0.500000000    0.00000
C78                C     0.238676593     0.206327494     0.500000000    0.00000
C79                C     0.283907243     0.214990754     0.500000000    0.00000
C80                C     0.294621545     0.260727832     0.500000000    0.00000
C81                C     0.261323407     0.293672506     0.500000000    0.00000
C82                C     0.332899979     0.331258755     0.500000000    0.00000
C83                C     0.284645983     0.337291133     0.500000000    0.00000
C84                C     0.215354017     0.162708867     0.500000000    0.00000
C85                C     0.167100021     0.168741245     0.500000000    0.00000
C86                C     0.320687526     0.182621429     0.500000000    0.00000
C87                C     0.179312474     0.317378571     0.500000000    0.00000
C88                C     0.713337661     0.217745849     0.500000000    0.00000
C89                C     0.759914827     0.206191460     0.500000000    0.00000
C90                C     0.794448460     0.237900638     0.500000000    0.00000
C91                C     0.786662339     0.282254151     0.500000000    0.00000
C92                C     0.740085173     0.293808540     0.500000000    0.00000
C93                C     0.705551540     0.262099362     0.500000000    0.00000
C94                C     0.668780613     0.332860612     0.500000000    0.00000
C95                C     0.661446073     0.285908776     0.500000000    0.00000
C96                C     0.838553927     0.214091224     0.500000000    0.00000
C97                C     0.831219387     0.167139388     0.500000000    0.00000
C98                C     0.820690348     0.317375748     0.500000000    0.00000
C99                C     0.679309652     0.182624252     0.500000000    0.00000
C100               C     0.716092757     0.785009246     0.500000000    0.00000
C101               C     0.705378455     0.739272168     0.500000000    0.00000
C102               C     0.738676593     0.706327494     0.500000000    0.00000
C103               C     0.783907243     0.714990754     0.500000000    0.00000
C104               C     0.794621545     0.760727832     0.500000000    0.00000
C105               C     0.761323407     0.793672506     0.500000000    0.00000
C106               C     0.832899979     0.831258755     0.500000000    0.00000
C107               C     0.784645983     0.837291133     0.500000000    0.00000
C108               C     0.715354017     0.662708867     0.500000000    0.00000
C109               C     0.667100021     0.668741245     0.500000000    0.00000
C110               C     0.820687526     0.682621429     0.500000000    0.00000
C111               C     0.679312474     0.817378571     0.500000000    0.00000
C112               C     0.213337661     0.717745849     0.500000000    0.00000
C113               C     0.259914827     0.706191460     0.500000000    0.00000
C114               C     0.294448460     0.737900638     0.500000000    0.00000
C115               C     0.286662339     0.782254151     0.500000000    0.00000
C116               C     0.240085173     0.793808540     0.500000000    0.00000
C117               C     0.205551540     0.762099362     0.500000000    0.00000
C118               C     0.168780613     0.832860612     0.500000000    0.00000
C119               C     0.161446073     0.785908776     0.500000000    0.00000
C120               C     0.338553927     0.714091224     0.500000000    0.00000
C121               C     0.331219387     0.667139388     0.500000000    0.00000
C122               C     0.320690348     0.817375748     0.500000000    0.00000
C123               C     0.179309652     0.682624252     0.500000000    0.00000
S124               S     0.342532403     0.285293888     0.500000000    0.00000
S125               S     0.157467597     0.214706112     0.500000000    0.00000
S126               S     0.716079086     0.341159428     0.500000000    0.00000
S127               S     0.783920914     0.158840572     0.500000000    0.00000
S128               S     0.842532403     0.785293888     0.500000000    0.00000
S129               S     0.657467597     0.714706112     0.500000000    0.00000
S130               S     0.216079086     0.841159428     0.500000000    0.00000
S131               S     0.283920914     0.658840572     0.500000000    0.00000
I132               I     0.717732740     0.972676653     0.500000000    0.00000
I133               I     0.528134284     0.215747632     0.500000000    0.00000
I134               I     0.279532385     0.030172782     0.500000000    0.00000
I135               I     0.466473326     0.787430120     0.500000000    0.00000
I136               I     0.217732740     0.472676653     0.500000000    0.00000
I137               I     0.028134284     0.715747632     0.500000000    0.00000
I138               I     0.779532385     0.530172782     0.500000000    0.00000
I139               I     0.966473326     0.287430120     0.500000000    0.00000
N140               N     0.428521882     0.986925323     0.500000000    0.00000
N141               N     0.483950624     0.068364576     0.500000000    0.00000
N142               N     0.511806496     0.932616962     0.500000000    0.00000
N143               N     0.569040525     0.014409311     0.500000000    0.00000
N144               N     0.928521882     0.486925323     0.500000000    0.00000
N145               N     0.983950624     0.568364576     0.500000000    0.00000
N146               N     0.011806496     0.432616962     0.500000000    0.00000
N147               N     0.069040525     0.514409311     0.500000000    0.00000
N148               N     0.363159658     0.363159658     0.500000000    0.00000
N149               N     0.136840342     0.136840342     0.500000000    0.00000
N150               N     0.350116144     0.156722104     0.500000000    0.00000
N151               N     0.149883856     0.343277896     0.500000000    0.00000
N152               N     0.636840342     0.363159658     0.500000000    0.00000
N153               N     0.863159658     0.136840342     0.500000000    0.00000
N154               N     0.847916819     0.345477220     0.500000000    0.00000
N155               N     0.652083181     0.154522780     0.500000000    0.00000
N156               N     0.863159658     0.863159658     0.500000000    0.00000
N157               N     0.636840342     0.636840342     0.500000000    0.00000
N158               N     0.850116144     0.656722104     0.500000000    0.00000
N159               N     0.649883856     0.843277896     0.500000000    0.00000
N160               N     0.136840342     0.863159658     0.500000000    0.00000
N161               N     0.363159658     0.636840342     0.500000000    0.00000
N162               N     0.347916819     0.845477220     0.500000000    0.00000
N163               N     0.152083181     0.654522780     0.500000000    0.00000

loop_
_geom_bond_atom_site_label_1
_geom_bond_atom_site_label_2
_geom_bond_distance
_geom_bond_site_symmetry_2
_ccdc_geom_bond_type
H0         N140       1.02487  .  S
H1         N143       1.01938  .  S
H2         C48        1.11046  .  S
H2         I133       1.91539  .  S
H3         I135       1.74246  .  S
H3         C49        1.11046  .  S
H4         C50        1.11046  .  S
H4         I132       1.88694  .  S
H5         I134       1.93248  .  S
H5         C51        1.11046  .  S
H6         C45        1.09920  .  S
H7         C30        1.09920  .  S
H8         C40        1.09920  .  S
H9         C35        1.09920  .  S
H10        N144       1.02487  .  S
H11        N147       1.01938  .  S
H12        C72        1.11046  .  S
H12        I137       1.91539  .  S
H13        I139       1.74246  .  S
H13        C73        1.11046  .  S
H14        C74        1.11046  .  S
H14        I136       1.88694  .  S
H15        I138       1.93248  .  S
H15        C75        1.11046  .  S
H16        C69        1.09920  .  S
H17        C54        1.09920  .  S
H18        C64        1.09920  .  S
H19        C59        1.09920  .  S
H20        C83        1.09832  .  S
H21        C84        1.09832  .  S
H22        C95        1.09832  .  S
H23        C96        1.09832  .  S
H24        C107       1.09832  .  S
H25        C108       1.09832  .  S
H26        C119       1.09832  .  S
H27        C120       1.09832  .  S
C28        N140       1.41380  .  S
C28        C29        1.49465  .  S
C28        C33        1.35714  .  S
C29        I134       2.30475  .  S
C29        C30        1.34895  .  S
C29        C28        1.49465  .  S
C30        H7         1.09920  .  S
C30        C31        1.49465  .  S
C30        C29        1.34895  .  S
C31        N140       1.41380  .  S
C31        C32        1.35714  .  S
C31        C30        1.49465  .  S
C32        C49        1.55000  .  S
C32        C38        1.43918  .  S
C32        C31        1.35714  .  S
C33        C51        1.55000  .  S
C33        C34        1.43918  .  S
C33        C28        1.35714  .  S
C34        N141       1.33589  .  S
C34        C35        1.49698  .  S
C34        C33        1.43918  .  S
C35        C36        1.35309  .  S
C35        C34        1.49698  .  S
C35        H9         1.09920  .  S
C36        C37        1.49205  .  S
C36        C35        1.35309  .  S
C36        I133       2.30475  .  S
C37        N141       1.44181  .  S
C37        C36        1.49205  .  S
C37        C42        1.35216  .  S
C38        N142       1.33589  .  S
C38        C39        1.49698  .  S
C38        C32        1.43918  .  S
C39        I135       2.30475  .  S
C39        C38        1.49698  .  S
C39        C40        1.35309  .  S
C40        C39        1.35309  .  S
C40        H8         1.09920  .  S
C40        C41        1.49205  .  S
C41        N142       1.44181  .  S
C41        C43        1.35216  .  S
C41        C40        1.49205  .  S
C42        C37        1.35216  .  S
C42        C48        1.55000  .  S
C42        C44        1.43813  .  S
C43        C50        1.55000  .  S
C43        C47        1.43813  .  S
C43        C41        1.35216  .  S
C44        N143       1.39551  .  S
C44        C45        1.42232  .  S
C44        C42        1.43813  .  S
C45        C46        1.40222  .  S
C45        C44        1.42232  .  S
C45        H6         1.09920  .  S
C46        C47        1.42232  .  S
C46        C45        1.40222  .  S
C46        I132       2.30475  .  S
C47        C46        1.42232  .  S
C47        C43        1.43813  .  S
C47        N143       1.39551  .  S
C48        N155       1.73895  .  S
C48        C42        1.55000  .  S
C48        H2         1.11046  .  S
C49        H3         1.11046  .  S
C49        N162       1.70942  .  S
C49        C32        1.55000  .  S
C50        N159       1.92716  .  S
C50        C43        1.55000  .  S
C50        H4         1.11046  .  S
C51        H5         1.11046  .  S
C51        N150       1.84657  .  S
C51        C33        1.55000  .  S
C52        C53        1.49465  .  S
C52        N144       1.41380  .  S
C52        C57        1.35714  .  S
C53        C54        1.34895  .  S
C53        I138       2.30475  .  S
C53        C52        1.49465  .  S
C54        C53        1.34895  .  S
C54        H17        1.09920  .  S
C54        C55        1.49465  .  S
C55        C54        1.49465  .  S
C55        N144       1.41380  .  S
C55        C56        1.35714  .  S
C56        C73        1.55000  .  S
C56        C62        1.43918  .  S
C56        C55        1.35714  .  S
C57        C75        1.55000  .  S
C57        C58        1.43918  .  S
C57        C52        1.35714  .  S
C58        N145       1.33589  .  S
C58        C59        1.49698  .  S
C58        C57        1.43918  .  S
C59        C60        1.35309  .  S
C59        C58        1.49698  .  S
C59        H19        1.09920  .  S
C60        C61        1.49205  .  S
C60        C59        1.35309  .  S
C60        I137       2.30475  .  S
C61        N145       1.44181  .  S
C61        C60        1.49205  .  S
C61        C66        1.35216  .  S
C62        N146       1.33589  .  S
C62        C63        1.49698  .  S
C62        C56        1.43918  .  S
C63        I139       2.30475  .  S
C63        C62        1.49698  .  S
C63        C64        1.35309  .  S
C64        H18        1.09920  .  S
C64        C65        1.49205  .  S
C64        C63        1.35309  .  S
C65        N146       1.44181  .  S
C65        C67        1.35216  .  S
C65        C64        1.49205  .  S
C66        C72        1.55000  .  S
C66        C68        1.43813  .  S
C66        C61        1.35216  .  S
C67        C74        1.55000  .  S
C67        C71        1.43813  .  S
C67        C65        1.35216  .  S
C68        N147       1.39551  .  S
C68        C69        1.42232  .  S
C68        C66        1.43813  .  S
C69        C70        1.40222  .  S
C69        C68        1.42232  .  S
C69        H16        1.09920  .  S
C70        C71        1.42232  .  S
C70        C69        1.40222  .  S
C70        I136       2.30475  .  S
C71        C70        1.42232  .  S
C71        C67        1.43813  .  S
C71        N147       1.39551  .  S
C72        N163       1.73895  .  S
C72        C66        1.55000  .  S
C72        H12        1.11046  .  S
C73        N154       1.70942  .  S
C73        H13        1.11046  .  S
C73        C56        1.55000  .  S
C74        N151       1.92716  .  S
C74        C67        1.55000  .  S
C74        H14        1.11046  .  S
C75        N158       1.84657  .  S
C75        H15        1.11046  .  S
C75        C57        1.55000  .  S
C76        C87        1.44545  .  S
C76        C81        1.34546  .  S
C76        C77        1.40280  .  S
C77        S125       1.57967  .  S
C77        C78        1.38383  .  S
C77        C76        1.40280  .  S
C78        C84        1.47115  .  S
C78        C79        1.34546  .  S
C78        C77        1.38383  .  S
C79        C86        1.44545  .  S
C79        C80        1.40280  .  S
C79        C78        1.34546  .  S
C80        S124       1.57967  .  S
C80        C81        1.38383  .  S
C80        C79        1.40280  .  S
C81        C83        1.47115  .  S
C81        C80        1.38383  .  S
C81        C76        1.34546  .  S
C82        S124       1.40277  .  S
C82        C83        1.42004  .  S
C82        N148       1.29997  .  S
C83        S124       2.29611  .  S
C83        C82        1.42004  .  S
C83        C81        1.47115  .  S
C83        H20        1.09832  .  S
C84        C85        1.42004  .  S
C84        S125       2.29611  .  S
C84        H21        1.09832  .  S
C84        C78        1.47115  .  S
C85        N149       1.29997  .  S
C85        S125       1.40277  .  S
C85        C84        1.42004  .  S
C86        C79        1.44545  .  S
C86        N150       1.15653  .  S
C87        N151       1.15653  .  S
C87        C76        1.44545  .  S
C88        C99        1.44545  .  S
C88        C93        1.34546  .  S
C88        C89        1.40280  .  S
C89        S127       1.57967  .  S
C89        C90        1.38383  .  S
C89        C88        1.40280  .  S
C90        C96        1.47115  .  S
C90        C91        1.34546  .  S
C90        C89        1.38383  .  S
C91        C98        1.44545  .  S
C91        C92        1.40280  .  S
C91        C90        1.34546  .  S
C92        C93        1.38383  .  S
C92        C91        1.40280  .  S
C92        S126       1.57967  .  S
C93        C95        1.47115  .  S
C93        C92        1.38383  .  S
C93        C88        1.34546  .  S
C94        C95        1.42004  .  S
C94        N152       1.29997  .  S
C94        S126       1.40277  .  S
C95        C94        1.42004  .  S
C95        H22        1.09832  .  S
C95        C93        1.47115  .  S
C95        S126       2.29611  .  S
C96        S127       2.29611  .  S
C96        C97        1.42004  .  S
C96        C90        1.47115  .  S
C96        H23        1.09832  .  S
C97        S127       1.40277  .  S
C97        C96        1.42004  .  S
C97        N153       1.29997  .  S
C98        C91        1.44545  .  S
C98        N154       1.15653  .  S
C99        N155       1.15653  .  S
C99        C88        1.44545  .  S
C100       C111       1.44545  .  S
C100       C105       1.34546  .  S
C100       C101       1.40280  .  S
C101       S129       1.57967  .  S
C101       C102       1.38383  .  S
C101       C100       1.40280  .  S
C102       C108       1.47115  .  S
C102       C103       1.34546  .  S
C102       C101       1.38383  .  S
C103       C110       1.44545  .  S
C103       C104       1.40280  .  S
C103       C102       1.34546  .  S
C104       S128       1.57967  .  S
C104       C105       1.38383  .  S
C104       C103       1.40280  .  S
C105       C107       1.47115  .  S
C105       C104       1.38383  .  S
C105       C100       1.34546  .  S
C106       S128       1.40277  .  S
C106       C107       1.42004  .  S
C106       N156       1.29997  .  S
C107       S128       2.29611  .  S
C107       C106       1.42004  .  S
C107       C105       1.47115  .  S
C107       H24        1.09832  .  S
C108       C109       1.42004  .  S
C108       S129       2.29611  .  S
C108       H25        1.09832  .  S
C108       C102       1.47115  .  S
C109       N157       1.29997  .  S
C109       S129       1.40277  .  S
C109       C108       1.42004  .  S
C110       N158       1.15653  .  S
C110       C103       1.44545  .  S
C111       N159       1.15653  .  S
C111       C100       1.44545  .  S
C112       C123       1.44545  .  S
C112       C117       1.34546  .  S
C112       C113       1.40280  .  S
C113       S131       1.57967  .  S
C113       C114       1.38383  .  S
C113       C112       1.40280  .  S
C114       C120       1.47115  .  S
C114       C115       1.34546  .  S
C114       C113       1.38383  .  S
C115       C122       1.44545  .  S
C115       C116       1.40280  .  S
C115       C114       1.34546  .  S
C116       S130       1.57967  .  S
C116       C117       1.38383  .  S
C116       C115       1.40280  .  S
C117       C119       1.47115  .  S
C117       C116       1.38383  .  S
C117       C112       1.34546  .  S
C118       C119       1.42004  .  S
C118       N160       1.29997  .  S
C118       S130       1.40277  .  S
C119       C118       1.42004  .  S
C119       H26        1.09832  .  S
C119       S130       2.29611  .  S
C119       C117       1.47115  .  S
C120       S131       2.29611  .  S
C120       C121       1.42004  .  S
C120       C114       1.47115  .  S
C120       H27        1.09832  .  S
C121       S131       1.40277  .  S
C121       C120       1.42004  .  S
C121       N161       1.29997  .  S
C122       C115       1.44545  .  S
C122       N162       1.15653  .  S
C123       N163       1.15653  .  S
C123       C112       1.44545  .  S
S124       C83        2.29611  .  S
S124       C82        1.40277  .  S
S124       C80        1.57967  .  S
S125       C85        1.40277  .  S
S125       C84        2.29611  .  S
S125       C77        1.57967  .  S
S126       C95        2.29611  .  S
S126       C94        1.40277  .  S
S126       C92        1.57967  .  S
S127       C97        1.40277  .  S
S127       C96        2.29611  .  S
S127       C89        1.57967  .  S
S128       C107       2.29611  .  S
S128       C106       1.40277  .  S
S128       C104       1.57967  .  S
S129       C109       1.40277  .  S
S129       C108       2.29611  .  S
S129       C101       1.57967  .  S
S130       C119       2.29611  .  S
S130       C118       1.40277  .  S
S130       C116       1.57967  .  S
S131       C121       1.40277  .  S
S131       C120       2.29611  .  S
S131       C113       1.57967  .  S
I132       C46        2.30475  .  S
I132       H4         1.88694  .  S
I133       C36        2.30475  .  S
I133       H2         1.91539  .  S
I134       H5         1.93248  .  S
I134       C29        2.30475  .  S
I135       H3         1.74246  .  S
I135       C39        2.30475  .  S
I136       C70        2.30475  .  S
I136       H14        1.88694  .  S
I137       C60        2.30475  .  S
I137       H12        1.91539  .  S
I138       C53        2.30475  .  S
I138       H15        1.93248  .  S
I139       H13        1.74246  .  S
I139       C63        2.30475  .  S
N140       C31        1.41380  .  S
N140       H0         1.02487  .  S
N140       C28        1.41380  .  S
N141       C37        1.44181  .  S
N141       C34        1.33589  .  S
N142       C38        1.33589  .  S
N142       C41        1.44181  .  S
N143       C47        1.39551  .  S
N143       C44        1.39551  .  S
N143       H1         1.01938  .  S
N144       C55        1.41380  .  S
N144       H10        1.02487  .  S
N144       C52        1.41380  .  S
N145       C61        1.44181  .  S
N145       C58        1.33589  .  S
N146       C62        1.33589  .  S
N146       C65        1.44181  .  S
N147       C71        1.39551  .  S
N147       C68        1.39551  .  S
N147       H11        1.01938  .  S
N148       C82        1.29997  .  S
N149       C85        1.29997  .  S
N150       C86        1.15653  .  S
N150       C51        1.84657  .  S
N151       C74        1.92716  .  S
N151       C87        1.15653  .  S
N152       C94        1.29997  .  S
N153       C97        1.29997  .  S
N154       C98        1.15653  .  S
N154       C73        1.70942  .  S
N155       C48        1.73895  .  S
N155       C99        1.15653  .  S
N156       C106       1.29997  .  S
N157       C109       1.29997  .  S
N158       C75        1.84657  .  S
N158       C110       1.15653  .  S
N159       C111       1.15653  .  S
N159       C50        1.92716  .  S
N160       C118       1.29997  .  S
N161       C121       1.29997  .  S
N162       C122       1.15653  .  S
N162       C49        1.70942  .  S
N163       C72        1.73895  .  S
N163       C123       1.15653  .  S
