data_S4_PHPR_CHO_SH_H_H_H_H_H-L2_BENZ_NH2_Cl_H-SQL_A-AA

_audit_creation_date     2025-10-12
_audit_creation_method   pyCOFBuilder

_chemical_name_common                  'S4_PHPR_CHO_SH_H_H_H_H_H-L2_BENZ_NH2_Cl_H-SQL_A-AA'
_cell_length_a                           36.035953
_cell_length_b                           36.035953
_cell_length_c                            6.057756
_cell_angle_alpha                        90.00
_cell_angle_beta                         90.00
_cell_angle_gamma                        90.00
_space_group_name_H-M_alt               'P 1'
_space_group_IT_number                  1

loop_
_symmetry_equiv_pos_as_xyz
   'x, y, z'

loop_
   _atom_site_label
   _atom_site_type_symbol
   _atom_site_fract_x
   _atom_site_fract_y
   _atom_site_fract_z
   _atom_site_charge
H0                 H     0.496886666     0.029686011     0.499953840    0.00000
H1                 H     0.503113331     0.970313989     0.499952823    0.00000
H2                 H     0.651457629     0.230880424     0.500013345    0.00000
H3                 H     0.348542365     0.769119576     0.499908826    0.00000
H4                 H     0.730880422     0.848542370     0.500048479    0.00000
H5                 H     0.269119573     0.151457630     0.499970147    0.00000
H6                 H     0.696097965     0.152022764     0.244902396    0.00000
H7                 H     0.606805435     0.801134977     0.359328818    0.00000
H8                 H     0.297284560     0.848095753     0.344763932    0.00000
H9                 H     0.346334745     0.199707555     0.296630812    0.00000
H10                H     0.699258043     0.909186740     0.650494966    0.00000
H11                H     0.409185014     0.800742874     0.650501615    0.00000
H12                H     0.300742726     0.090814642     0.650502111    0.00000
H13                H     0.590812916     0.199258188     0.650495463    0.00000
H14                H     0.632579218     0.077374006     0.349403203    0.00000
H15                H     0.577374151     0.867421124     0.349395173    0.00000
H16                H     0.367422847     0.922624930     0.349358601    0.00000
H17                H     0.422625074     0.132577494     0.349366631    0.00000
H18                H     0.547652641     0.145158370     0.650609292    0.00000
H19                H     0.645158224     0.952347015     0.650610420    0.00000
H20                H     0.452345287     0.854842694     0.650622901    0.00000
H21                H     0.354842546     0.047654368     0.650621772    0.00000
H22                H     0.551836379     0.861638529     0.499949282    0.00000
H23                H     0.448163618     0.138361471     0.499949743    0.00000
H24                H     0.361638527     0.948163620     0.499940373    0.00000
H25                H     0.638361470     0.051836380     0.499958651    0.00000
H26                H     0.476757765     0.854046511     0.499947105    0.00000
H27                H     0.645953488     0.976757767     0.499959655    0.00000
H28                H     0.523242232     0.145953489     0.499956533    0.00000
H29                H     0.354046509     0.023242233     0.499943983    0.00000
H30                H     0.996886666     0.529686011     0.499953840    0.00000
H31                H     0.003113331     0.470313989     0.499952823    0.00000
H32                H     0.151457629     0.730880424     0.500013345    0.00000
H33                H     0.848542365     0.269119576     0.499908826    0.00000
H34                H     0.230880422     0.348542370     0.500048479    0.00000
H35                H     0.769119573     0.651457630     0.499970147    0.00000
H36                H     0.196097965     0.652022764     0.244902396    0.00000
H37                H     0.106805435     0.301134977     0.359328818    0.00000
H38                H     0.797284560     0.348095753     0.344763932    0.00000
H39                H     0.846334745     0.699707555     0.296630812    0.00000
H40                H     0.199258043     0.409186740     0.650494966    0.00000
H41                H     0.909185014     0.300742874     0.650501615    0.00000
H42                H     0.800742726     0.590814642     0.650502111    0.00000
H43                H     0.090812916     0.699258188     0.650495463    0.00000
H44                H     0.132579218     0.577374006     0.349403203    0.00000
H45                H     0.077374151     0.367421124     0.349395173    0.00000
H46                H     0.867422847     0.422624930     0.349358601    0.00000
H47                H     0.922625074     0.632577494     0.349366631    0.00000
H48                H     0.047652641     0.645158370     0.650609292    0.00000
H49                H     0.145158224     0.452347015     0.650610420    0.00000
H50                H     0.952345287     0.354842694     0.650622901    0.00000
H51                H     0.854842546     0.547654368     0.650621772    0.00000
H52                H     0.051836379     0.361638529     0.499949282    0.00000
H53                H     0.948163618     0.638361471     0.499949743    0.00000
H54                H     0.861638527     0.448163620     0.499940373    0.00000
H55                H     0.138361470     0.551836380     0.499958651    0.00000
H56                H     0.976757765     0.354046511     0.499947105    0.00000
H57                H     0.145953488     0.476757767     0.499959655    0.00000
H58                H     0.023242232     0.645953489     0.499956533    0.00000
H59                H     0.854046509     0.523242233     0.499943983    0.00000
H60                H     0.267961475     0.182966863     0.500000000    0.00000
H61                H     0.232038525     0.317033137     0.500000000    0.00000
H62                H     0.817033137     0.267961475     0.500000000    0.00000
H63                H     0.682966863     0.232038525     0.500000000    0.00000
H64                H     0.767961475     0.682966863     0.500000000    0.00000
H65                H     0.732038525     0.817033137     0.500000000    0.00000
H66                H     0.317033137     0.767961475     0.500000000    0.00000
H67                H     0.182966863     0.732038525     0.500000000    0.00000
C68                C     0.523937410     0.082754681     0.499956404    0.00000
C69                C     0.506503109     0.120389195     0.499957185    0.00000
C70                C     0.469260539     0.116613226     0.499956000    0.00000
C71                C     0.459734794     0.076245273     0.499954364    0.00000
C72                C     0.425342208     0.060899930     0.499952869    0.00000
C73                C     0.560899929     0.074657790     0.499960965    0.00000
C74                C     0.576245272     0.040265205     0.499960215    0.00000
C75                C     0.616613225     0.030739459     0.499962466    0.00000
C76                C     0.620389195     0.993496890     0.499960780    0.00000
C77                C     0.582754680     0.976062589     0.499957307    0.00000
C78                C     0.417245317     0.023937411     0.499948920    0.00000
C79                C     0.379610803     0.006503110     0.499947266    0.00000
C80                C     0.383386772     0.969260540     0.499947660    0.00000
C81                C     0.423754725     0.959734795     0.499949601    0.00000
C82                C     0.574657789     0.939100070     0.499958615    0.00000
C83                C     0.439100068     0.925342210     0.499950518    0.00000
C84                C     0.540265204     0.923754727     0.499955452    0.00000
C85                C     0.530739458     0.883386774     0.499954126    0.00000
C86                C     0.493496888     0.879610805     0.499950862    0.00000
C87                C     0.476062588     0.917245319     0.499949823    0.00000
C88                C     0.391938026     0.087554183     0.499952824    0.00000
C89                C     0.395760882     0.123379278     0.415644425    0.00000
C90                C     0.357860636     0.075880468     0.584218521    0.00000
C91                C     0.365516680     0.147529584     0.415710381    0.00000
C92                C     0.327597193     0.100025614     0.584147584    0.00000
C93                C     0.331420566     0.135846900     0.499933809    0.00000
C94                C     0.587554182     0.108061972     0.499964522    0.00000
C95                C     0.575879502     0.142139875     0.584218137    0.00000
C96                C     0.623380243     0.104238602     0.415671472    0.00000
C97                C     0.600024648     0.172403317     0.584150461    0.00000
C98                C     0.647530549     0.134482804     0.415740699    0.00000
C99                C     0.635846899     0.168579432     0.499952035    0.00000
C100               C     0.412445815     0.891938028     0.499949470    0.00000
C101               C     0.424119338     0.857860720     0.584217273    0.00000
C102               C     0.376620912     0.895760802     0.415638055    0.00000
C103               C     0.399974193     0.827597277     0.584145427    0.00000
C104               C     0.352470605     0.865516600     0.415703101    0.00000
C105               C     0.364153098     0.831420568     0.499928636    0.00000
C106               C     0.608061971     0.912445817     0.499961168    0.00000
C107               C     0.642139793     0.924120305     0.584216889    0.00000
C108               C     0.604238683     0.876619948     0.415665102    0.00000
C109               C     0.672403235     0.899975159     0.584148304    0.00000
C110               C     0.634482885     0.852469642     0.415733418    0.00000
C111               C     0.668579431     0.864153100     0.499946862    0.00000
C112               C     0.662692275     0.202186119     0.499991931    0.00000
C113               C     0.337307722     0.797813881     0.499963884    0.00000
C114               C     0.702186119     0.837307725     0.499985746    0.00000
C115               C     0.297813879     0.162692275     0.499970070    0.00000
C116               C     0.023937410     0.582754681     0.499956404    0.00000
C117               C     0.006503109     0.620389195     0.499957185    0.00000
C118               C     0.969260539     0.616613226     0.499956000    0.00000
C119               C     0.959734794     0.576245273     0.499954364    0.00000
C120               C     0.925342208     0.560899930     0.499952869    0.00000
C121               C     0.060899929     0.574657790     0.499960965    0.00000
C122               C     0.076245272     0.540265205     0.499960215    0.00000
C123               C     0.116613225     0.530739459     0.499962466    0.00000
C124               C     0.120389195     0.493496890     0.499960780    0.00000
C125               C     0.082754680     0.476062589     0.499957307    0.00000
C126               C     0.917245317     0.523937411     0.499948920    0.00000
C127               C     0.879610803     0.506503110     0.499947266    0.00000
C128               C     0.883386772     0.469260540     0.499947660    0.00000
C129               C     0.923754725     0.459734795     0.499949601    0.00000
C130               C     0.074657789     0.439100070     0.499958615    0.00000
C131               C     0.939100068     0.425342210     0.499950518    0.00000
C132               C     0.040265204     0.423754727     0.499955452    0.00000
C133               C     0.030739458     0.383386774     0.499954126    0.00000
C134               C     0.993496888     0.379610805     0.499950862    0.00000
C135               C     0.976062588     0.417245319     0.499949823    0.00000
C136               C     0.891938026     0.587554183     0.499952824    0.00000
C137               C     0.895760882     0.623379278     0.415644425    0.00000
C138               C     0.857860636     0.575880468     0.584218521    0.00000
C139               C     0.865516680     0.647529584     0.415710381    0.00000
C140               C     0.827597193     0.600025614     0.584147584    0.00000
C141               C     0.831420566     0.635846900     0.499933809    0.00000
C142               C     0.087554182     0.608061972     0.499964522    0.00000
C143               C     0.075879502     0.642139875     0.584218137    0.00000
C144               C     0.123380243     0.604238602     0.415671472    0.00000
C145               C     0.100024648     0.672403317     0.584150461    0.00000
C146               C     0.147530549     0.634482804     0.415740699    0.00000
C147               C     0.135846899     0.668579432     0.499952035    0.00000
C148               C     0.912445815     0.391938028     0.499949470    0.00000
C149               C     0.924119338     0.357860720     0.584217273    0.00000
C150               C     0.876620912     0.395760802     0.415638055    0.00000
C151               C     0.899974193     0.327597277     0.584145427    0.00000
C152               C     0.852470605     0.365516600     0.415703101    0.00000
C153               C     0.864153098     0.331420568     0.499928636    0.00000
C154               C     0.108061971     0.412445817     0.499961168    0.00000
C155               C     0.142139793     0.424120305     0.584216889    0.00000
C156               C     0.104238683     0.376619948     0.415665102    0.00000
C157               C     0.172403235     0.399975159     0.584148304    0.00000
C158               C     0.134482885     0.352469642     0.415733418    0.00000
C159               C     0.168579431     0.364153100     0.499946862    0.00000
C160               C     0.162692275     0.702186119     0.499991931    0.00000
C161               C     0.837307722     0.297813881     0.499963884    0.00000
C162               C     0.202186119     0.337307725     0.499985746    0.00000
C163               C     0.797813879     0.662692275     0.499970070    0.00000
C164               C     0.287569627     0.239933249     0.500000000    0.00000
C165               C     0.277502876     0.277502876     0.500000000    0.00000
C166               C     0.239933249     0.287569627     0.500000000    0.00000
C167               C     0.212430373     0.260066751     0.500000000    0.00000
C168               C     0.222497124     0.222497124     0.500000000    0.00000
C169               C     0.260066751     0.212430373     0.500000000    0.00000
C170               C     0.760066751     0.287569627     0.500000000    0.00000
C171               C     0.722497124     0.277502876     0.500000000    0.00000
C172               C     0.712430373     0.239933249     0.500000000    0.00000
C173               C     0.739933249     0.212430373     0.500000000    0.00000
C174               C     0.777502876     0.222497124     0.500000000    0.00000
C175               C     0.787569627     0.260066751     0.500000000    0.00000
C176               C     0.787569627     0.739933249     0.500000000    0.00000
C177               C     0.777502876     0.777502876     0.500000000    0.00000
C178               C     0.739933249     0.787569627     0.500000000    0.00000
C179               C     0.712430373     0.760066751     0.500000000    0.00000
C180               C     0.722497124     0.722497124     0.500000000    0.00000
C181               C     0.760066751     0.712430373     0.500000000    0.00000
C182               C     0.260066751     0.787569627     0.500000000    0.00000
C183               C     0.222497124     0.777502876     0.500000000    0.00000
C184               C     0.212430373     0.739933249     0.500000000    0.00000
C185               C     0.239933249     0.712430373     0.500000000    0.00000
C186               C     0.277502876     0.722497124     0.500000000    0.00000
C187               C     0.287569627     0.760066751     0.500000000    0.00000
S188               S     0.684259346     0.130560686     0.329469661    0.00000
S189               S     0.630560850     0.815741041     0.329459289    0.00000
S190               S     0.315742993     0.869438110     0.329413236    0.00000
S191               S     0.369438272     0.184257393     0.329423609    0.00000
S192               S     0.184259346     0.630560686     0.329469661    0.00000
S193               S     0.130560850     0.315741041     0.329459289    0.00000
S194               S     0.815742993     0.369438110     0.329413236    0.00000
S195               S     0.869438272     0.684257393     0.329423609    0.00000
N196               N     0.494087479     0.057294534     0.499954696    0.00000
N197               N     0.557294533     0.005912520     0.499957132    0.00000
N198               N     0.442705464     0.994087480     0.499950284    0.00000
N199               N     0.505912518     0.942705466     0.499952720    0.00000
N200               N     0.994087479     0.557294534     0.499954696    0.00000
N201               N     0.057294533     0.505912520     0.499957132    0.00000
N202               N     0.942705464     0.494087480     0.499950284    0.00000
N203               N     0.005912518     0.442705466     0.499952720    0.00000
N204               N     0.303011811     0.303011811     0.500000000    0.00000
N205               N     0.196988189     0.196988189     0.500000000    0.00000
N206               N     0.696988189     0.303011811     0.500000000    0.00000
N207               N     0.803011811     0.196988189     0.500000000    0.00000
N208               N     0.803011811     0.803011811     0.500000000    0.00000
N209               N     0.696988189     0.696988189     0.500000000    0.00000
N210               N     0.196988189     0.803011811     0.500000000    0.00000
N211               N     0.303011811     0.696988189     0.500000000    0.00000
Cl212              Cl     0.334068739     0.227473850     0.500000000    0.00000
Cl213              Cl     0.165931261     0.272526150     0.500000000    0.00000
Cl214              Cl     0.772526151     0.334068738     0.500000000    0.00000
Cl215              Cl     0.727473849     0.165931262     0.500000000    0.00000
Cl216              Cl     0.834068739     0.727473850     0.500000000    0.00000
Cl217              Cl     0.665931261     0.772526150     0.500000000    0.00000
Cl218              Cl     0.272526151     0.834068738     0.500000000    0.00000
Cl219              Cl     0.227473849     0.665931262     0.500000000    0.00000

loop_
_geom_bond_atom_site_label_1
_geom_bond_atom_site_label_2
_geom_bond_distance
_geom_bond_site_symmetry_2
_ccdc_geom_bond_type
H0         N196       1.00000  .  S
H1         N199       1.00000  .  S
H2         C112       1.11046  .  S
H3         C113       1.11046  .  S
H4         C114       1.11046  .  S
H5         C115       1.11046  .  S
H6         S188       1.02108  .  S
H7         S189       1.02108  .  S
H8         Cl218      1.39134  .  S
H8         S190       1.02108  .  S
H9         Cl212      1.64751  .  S
H9         S191       1.02108  .  S
H10        C109       1.09920  .  S
H11        C103       1.09920  .  S
H12        C92        1.09920  .  S
H13        C97        1.09920  .  S
H14        C96        1.09920  .  S
H15        C108       1.09920  .  S
H16        C102       1.09920  .  S
H17        C89        1.09920  .  S
H18        C95        1.09920  .  S
H19        C107       1.09920  .  S
H20        C101       1.09920  .  S
H21        C90        1.09920  .  S
H22        C85        1.09188  .  S
H23        C70        1.09188  .  S
H24        C80        1.09188  .  S
H25        C75        1.09188  .  S
H26        C86        1.10115  .  S
H27        C76        1.10115  .  S
H28        C69        1.10115  .  S
H29        C79        1.10115  .  S
H30        N200       1.00000  .  S
H31        N203       1.00000  .  S
H32        C160       1.11046  .  S
H33        C161       1.11046  .  S
H34        C162       1.11046  .  S
H35        C163       1.11046  .  S
H36        S192       1.02108  .  S
H37        S193       1.02108  .  S
H38        Cl214      1.39134  .  S
H38        S194       1.02108  .  S
H39        Cl216      1.64751  .  S
H39        S195       1.02108  .  S
H40        C157       1.09920  .  S
H41        C151       1.09920  .  S
H42        C140       1.09920  .  S
H43        C145       1.09920  .  S
H44        C144       1.09920  .  S
H45        C156       1.09920  .  S
H46        C150       1.09920  .  S
H47        C137       1.09920  .  S
H48        C143       1.09920  .  S
H49        C155       1.09920  .  S
H50        C149       1.09920  .  S
H51        C138       1.09920  .  S
H52        C133       1.09188  .  S
H53        C118       1.09188  .  S
H54        C128       1.09188  .  S
H55        C123       1.09188  .  S
H56        C134       1.10115  .  S
H57        C124       1.10115  .  S
H58        C117       1.10115  .  S
H59        C127       1.10115  .  S
H60        C169       1.09920  .  S
H60        C115       1.30041  .  S
H61        C166       1.09920  .  S
H61        C162       1.30041  .  S
H62        C175       1.09920  .  S
H62        C161       1.30041  .  S
H63        C112       1.30041  .  S
H63        C172       1.09920  .  S
H64        C163       1.30041  .  S
H64        C181       1.09920  .  S
H65        C178       1.09920  .  S
H65        C114       1.30041  .  S
H66        C187       1.09920  .  S
H66        C113       1.30041  .  S
H67        C184       1.09920  .  S
H67        C160       1.30041  .  S
C68        N196       1.41380  .  S
C68        C69        1.49465  .  S
C68        C73        1.36356  .  S
C69        C70        1.34895  .  S
C69        C68        1.49465  .  S
C69        H28        1.10115  .  S
C70        C71        1.49465  .  S
C70        C69        1.34895  .  S
C70        H23        1.09188  .  S
C71        N196       1.41380  .  S
C71        C72        1.35714  .  S
C71        C70        1.49465  .  S
C72        C88        1.54000  .  S
C72        C78        1.36356  .  S
C72        C71        1.35714  .  S
C73        C68        1.36356  .  S
C73        C94        1.54000  .  S
C73        C74        1.35714  .  S
C74        N197       1.41380  .  S
C74        C75        1.49465  .  S
C74        C73        1.35714  .  S
C75        C76        1.34895  .  S
C75        C74        1.49465  .  S
C75        H25        1.09188  .  S
C76        C77        1.49465  .  S
C76        H27        1.10115  .  S
C76        C75        1.34895  .  S
C77        N197       1.41380  .  S
C77        C82        1.36356  .  S
C77        C76        1.49465  .  S
C78        C79        1.49465  .  S
C78        N198       1.41380  .  S
C78        C72        1.36356  .  S
C79        C80        1.34895  .  S
C79        C78        1.49465  .  S
C79        H29        1.10115  .  S
C80        H24        1.09188  .  S
C80        C79        1.34895  .  S
C80        C81        1.49465  .  S
C81        C80        1.49465  .  S
C81        C83        1.35714  .  S
C81        N198       1.41380  .  S
C82        C84        1.35714  .  S
C82        C106       1.54000  .  S
C82        C77        1.36356  .  S
C83        C100       1.54000  .  S
C83        C87        1.36356  .  S
C83        C81        1.35714  .  S
C84        N199       1.41380  .  S
C84        C85        1.49465  .  S
C84        C82        1.35714  .  S
C85        C86        1.34895  .  S
C85        C84        1.49465  .  S
C85        H22        1.09188  .  S
C86        C87        1.49465  .  S
C86        C85        1.34895  .  S
C86        H26        1.10115  .  S
C87        N199       1.41380  .  S
C87        C86        1.49465  .  S
C87        C83        1.36356  .  S
C88        C90        1.39483  .  S
C88        C89        1.39516  .  S
C88        C72        1.54000  .  S
C89        C88        1.39516  .  S
C89        C91        1.39471  .  S
C89        H17        1.09920  .  S
C90        C92        1.39514  .  S
C90        C88        1.39483  .  S
C90        H21        1.09920  .  S
C91        C93        1.39543  .  S
C91        C89        1.39471  .  S
C91        S191       1.43000  .  S
C92        C93        1.39483  .  S
C92        C90        1.39514  .  S
C92        H12        1.09920  .  S
C93        C92        1.39483  .  S
C93        C115       1.55000  .  S
C93        C91        1.39543  .  S
C94        C96        1.39516  .  S
C94        C95        1.39483  .  S
C94        C73        1.54000  .  S
C95        H18        1.09920  .  S
C95        C94        1.39483  .  S
C95        C97        1.39514  .  S
C96        C98        1.39471  .  S
C96        C94        1.39516  .  S
C96        H14        1.09920  .  S
C97        C95        1.39514  .  S
C97        C99        1.39483  .  S
C97        H13        1.09920  .  S
C98        S188       1.43000  .  S
C98        C96        1.39471  .  S
C98        C99        1.39543  .  S
C99        C98        1.39543  .  S
C99        C112       1.55000  .  S
C99        C97        1.39483  .  S
C100       C102       1.39516  .  S
C100       C101       1.39483  .  S
C100       C83        1.54000  .  S
C101       C103       1.39514  .  S
C101       C100       1.39483  .  S
C101       H20        1.09920  .  S
C102       C104       1.39471  .  S
C102       C100       1.39516  .  S
C102       H16        1.09920  .  S
C103       C105       1.39483  .  S
C103       H11        1.09920  .  S
C103       C101       1.39514  .  S
C104       C105       1.39543  .  S
C104       S190       1.43000  .  S
C104       C102       1.39471  .  S
C105       C113       1.55000  .  S
C105       C103       1.39483  .  S
C105       C104       1.39543  .  S
C106       C108       1.39516  .  S
C106       C107       1.39483  .  S
C106       C82        1.54000  .  S
C107       C109       1.39514  .  S
C107       C106       1.39483  .  S
C107       H19        1.09920  .  S
C108       C110       1.39471  .  S
C108       C106       1.39516  .  S
C108       H15        1.09920  .  S
C109       C111       1.39483  .  S
C109       C107       1.39514  .  S
C109       H10        1.09920  .  S
C110       S189       1.43000  .  S
C110       C111       1.39543  .  S
C110       C108       1.39471  .  S
C111       C110       1.39543  .  S
C111       C109       1.39483  .  S
C111       C114       1.55000  .  S
C112       C99        1.55000  .  S
C112       H63        1.30041  .  S
C112       H2         1.11046  .  S
C113       C105       1.55000  .  S
C113       H66        1.30041  .  S
C113       H3         1.11046  .  S
C114       C111       1.55000  .  S
C114       H65        1.30041  .  S
C114       H4         1.11046  .  S
C115       H60        1.30041  .  S
C115       H5         1.11046  .  S
C115       C93        1.55000  .  S
C116       N200       1.41380  .  S
C116       C121       1.36356  .  S
C116       C117       1.49465  .  S
C117       C118       1.34895  .  S
C117       C116       1.49465  .  S
C117       H58        1.10115  .  S
C118       C119       1.49465  .  S
C118       H53        1.09188  .  S
C118       C117       1.34895  .  S
C119       C120       1.35714  .  S
C119       C118       1.49465  .  S
C119       N200       1.41380  .  S
C120       C126       1.36356  .  S
C120       C136       1.54000  .  S
C120       C119       1.35714  .  S
C121       C122       1.35714  .  S
C121       C142       1.54000  .  S
C121       C116       1.36356  .  S
C122       N201       1.41380  .  S
C122       C123       1.49465  .  S
C122       C121       1.35714  .  S
C123       C124       1.34895  .  S
C123       C122       1.49465  .  S
C123       H55        1.09188  .  S
C124       C125       1.49465  .  S
C124       C123       1.34895  .  S
C124       H57        1.10115  .  S
C125       N201       1.41380  .  S
C125       C130       1.36356  .  S
C125       C124       1.49465  .  S
C126       N202       1.41380  .  S
C126       C127       1.49465  .  S
C126       C120       1.36356  .  S
C127       C128       1.34895  .  S
C127       C126       1.49465  .  S
C127       H59        1.10115  .  S
C128       C129       1.49465  .  S
C128       C127       1.34895  .  S
C128       H54        1.09188  .  S
C129       N202       1.41380  .  S
C129       C131       1.35714  .  S
C129       C128       1.49465  .  S
C130       C154       1.54000  .  S
C130       C132       1.35714  .  S
C130       C125       1.36356  .  S
C131       C148       1.54000  .  S
C131       C129       1.35714  .  S
C131       C135       1.36356  .  S
C132       C133       1.49465  .  S
C132       N203       1.41380  .  S
C132       C130       1.35714  .  S
C133       C134       1.34895  .  S
C133       H52        1.09188  .  S
C133       C132       1.49465  .  S
C134       C133       1.34895  .  S
C134       C135       1.49465  .  S
C134       H56        1.10115  .  S
C135       C131       1.36356  .  S
C135       C134       1.49465  .  S
C135       N203       1.41380  .  S
C136       C120       1.54000  .  S
C136       C138       1.39483  .  S
C136       C137       1.39516  .  S
C137       C139       1.39471  .  S
C137       C136       1.39516  .  S
C137       H47        1.09920  .  S
C138       C140       1.39514  .  S
C138       H51        1.09920  .  S
C138       C136       1.39483  .  S
C139       C141       1.39543  .  S
C139       S195       1.43000  .  S
C139       C137       1.39471  .  S
C140       C141       1.39483  .  S
C140       H42        1.09920  .  S
C140       C138       1.39514  .  S
C141       C163       1.55000  .  S
C141       C140       1.39483  .  S
C141       C139       1.39543  .  S
C142       C144       1.39516  .  S
C142       C143       1.39483  .  S
C142       C121       1.54000  .  S
C143       C145       1.39514  .  S
C143       C142       1.39483  .  S
C143       H48        1.09920  .  S
C144       C142       1.39516  .  S
C144       H44        1.09920  .  S
C144       C146       1.39471  .  S
C145       C147       1.39483  .  S
C145       C143       1.39514  .  S
C145       H43        1.09920  .  S
C146       C147       1.39543  .  S
C146       C144       1.39471  .  S
C146       S192       1.43000  .  S
C147       C145       1.39483  .  S
C147       C146       1.39543  .  S
C147       C160       1.55000  .  S
C148       C150       1.39516  .  S
C148       C149       1.39483  .  S
C148       C131       1.54000  .  S
C149       C151       1.39514  .  S
C149       C148       1.39483  .  S
C149       H50        1.09920  .  S
C150       C152       1.39471  .  S
C150       C148       1.39516  .  S
C150       H46        1.09920  .  S
C151       C153       1.39483  .  S
C151       C149       1.39514  .  S
C151       H41        1.09920  .  S
C152       S194       1.43000  .  S
C152       C153       1.39543  .  S
C152       C150       1.39471  .  S
C153       C161       1.55000  .  S
C153       C152       1.39543  .  S
C153       C151       1.39483  .  S
C154       C156       1.39516  .  S
C154       C130       1.54000  .  S
C154       C155       1.39483  .  S
C155       C154       1.39483  .  S
C155       C157       1.39514  .  S
C155       H49        1.09920  .  S
C156       C158       1.39471  .  S
C156       C154       1.39516  .  S
C156       H45        1.09920  .  S
C157       C159       1.39483  .  S
C157       H40        1.09920  .  S
C157       C155       1.39514  .  S
C158       S193       1.43000  .  S
C158       C156       1.39471  .  S
C158       C159       1.39543  .  S
C159       C158       1.39543  .  S
C159       C162       1.55000  .  S
C159       C157       1.39483  .  S
C160       C147       1.55000  .  S
C160       H67        1.30041  .  S
C160       H32        1.11046  .  S
C161       H62        1.30041  .  S
C161       H33        1.11046  .  S
C161       C153       1.55000  .  S
C162       C159       1.55000  .  S
C162       H61        1.30041  .  S
C162       H34        1.11046  .  S
C163       C141       1.55000  .  S
C163       H64        1.30041  .  S
C163       H35        1.11046  .  S
C164       C169       1.40162  .  S
C164       C165       1.40162  .  S
C164       Cl212      1.73475  .  S
C165       C166       1.40162  .  S
C165       C164       1.40162  .  S
C165       N204       1.30000  .  S
C166       C167       1.40162  .  S
C166       C165       1.40162  .  S
C166       H61        1.09920  .  S
C167       Cl213      1.73475  .  S
C167       C168       1.40162  .  S
C167       C166       1.40162  .  S
C168       N205       1.30000  .  S
C168       C169       1.40162  .  S
C168       C167       1.40162  .  S
C169       C168       1.40162  .  S
C169       H60        1.09920  .  S
C169       C164       1.40162  .  S
C170       C175       1.40162  .  S
C170       C171       1.40162  .  S
C170       Cl214      1.73475  .  S
C171       C172       1.40162  .  S
C171       N206       1.30000  .  S
C171       C170       1.40162  .  S
C172       H63        1.09920  .  S
C172       C173       1.40162  .  S
C172       C171       1.40162  .  S
C173       Cl215      1.73475  .  S
C173       C174       1.40162  .  S
C173       C172       1.40162  .  S
C174       N207       1.30000  .  S
C174       C175       1.40162  .  S
C174       C173       1.40162  .  S
C175       C174       1.40162  .  S
C175       H62        1.09920  .  S
C175       C170       1.40162  .  S
C176       Cl216      1.73475  .  S
C176       C181       1.40162  .  S
C176       C177       1.40162  .  S
C177       N208       1.30000  .  S
C177       C178       1.40162  .  S
C177       C176       1.40162  .  S
C178       C179       1.40162  .  S
C178       C177       1.40162  .  S
C178       H65        1.09920  .  S
C179       Cl217      1.73475  .  S
C179       C180       1.40162  .  S
C179       C178       1.40162  .  S
C180       N209       1.30000  .  S
C180       C181       1.40162  .  S
C180       C179       1.40162  .  S
C181       H64        1.09920  .  S
C181       C180       1.40162  .  S
C181       C176       1.40162  .  S
C182       Cl218      1.73475  .  S
C182       C183       1.40162  .  S
C182       C187       1.40162  .  S
C183       N210       1.30000  .  S
C183       C184       1.40162  .  S
C183       C182       1.40162  .  S
C184       C185       1.40162  .  S
C184       C183       1.40162  .  S
C184       H67        1.09920  .  S
C185       Cl219      1.73475  .  S
C185       C186       1.40162  .  S
C185       C184       1.40162  .  S
C186       C185       1.40162  .  S
C186       N211       1.30000  .  S
C186       C187       1.40162  .  S
C187       C186       1.40162  .  S
C187       C182       1.40162  .  S
C187       H66        1.09920  .  S
S188       C98        1.43000  .  S
S188       H6         1.02108  .  S
S188       Cl215      2.26206  .  S
S189       Cl217      2.26209  .  S
S189       H7         1.02108  .  S
S189       C110       1.43000  .  S
S190       Cl218      2.26225  .  S
S190       C104       1.43000  .  S
S190       H8         1.02108  .  S
S191       Cl212      2.26221  .  S
S191       C91        1.43000  .  S
S191       H9         1.02108  .  S
S192       Cl219      2.26206  .  S
S192       C146       1.43000  .  S
S192       H36        1.02108  .  S
S193       C158       1.43000  .  S
S193       H37        1.02108  .  S
S193       Cl213      2.26209  .  S
S194       Cl214      2.26225  .  S
S194       H38        1.02108  .  S
S194       C152       1.43000  .  S
S195       Cl216      2.26221  .  S
S195       C139       1.43000  .  S
S195       H39        1.02108  .  S
N196       C71        1.41380  .  S
N196       C68        1.41380  .  S
N196       H0         1.00000  .  S
N197       C77        1.41380  .  S
N197       C74        1.41380  .  S
N198       C78        1.41380  .  S
N198       C81        1.41380  .  S
N199       C87        1.41380  .  S
N199       C84        1.41380  .  S
N199       H1         1.00000  .  S
N200       C119       1.41380  .  S
N200       H30        1.00000  .  S
N200       C116       1.41380  .  S
N201       C125       1.41380  .  S
N201       C122       1.41380  .  S
N202       C129       1.41380  .  S
N202       C126       1.41380  .  S
N203       C135       1.41380  .  S
N203       C132       1.41380  .  S
N203       H31        1.00000  .  S
N204       C165       1.30000  .  S
N205       C168       1.30000  .  S
N206       C171       1.30000  .  S
N207       C174       1.30000  .  S
N208       C177       1.30000  .  S
N209       C180       1.30000  .  S
N210       C183       1.30000  .  S
N211       C186       1.30000  .  S
Cl212      S191       2.26221  .  S
Cl212      C164       1.73475  .  S
Cl212      H9         1.64751  .  S
Cl213      S193       2.26209  .  S
Cl213      C167       1.73475  .  S
Cl214      S194       2.26225  .  S
Cl214      C170       1.73475  .  S
Cl214      H38        1.39134  .  S
Cl215      S188       2.26206  .  S
Cl215      C173       1.73475  .  S
Cl216      C176       1.73475  .  S
Cl216      S195       2.26221  .  S
Cl216      H39        1.64751  .  S
Cl217      S189       2.26209  .  S
Cl217      C179       1.73475  .  S
Cl218      C182       1.73475  .  S
Cl218      S190       2.26225  .  S
Cl218      H8         1.39134  .  S
Cl219      S192       2.26206  .  S
Cl219      C185       1.73475  .  S
