data_T3_BRZN_CHO_OH-L2_DPDA_NH2_I_H_H_H-HCB_A-AA

_audit_creation_date     2025-09-12
_audit_creation_method   pyCOFBuilder

_chemical_name_common                  'T3_BRZN_CHO_OH-L2_DPDA_NH2_I_H_H_H-HCB_A-AA'
_cell_length_a                           33.554327
_cell_length_b                           33.554327
_cell_length_c                            3.600000
_cell_angle_alpha                        90.00
_cell_angle_beta                         90.00
_cell_angle_gamma                       120.00
_space_group_name_H-M_alt               'P 1'
_space_group_IT_number                  1

loop_
_symmetry_equiv_pos_as_xyz
   'x, y, z'

loop_
   _atom_site_label
   _atom_site_type_symbol
   _atom_site_fract_x
   _atom_site_fract_y
   _atom_site_fract_z
   _atom_site_charge
B0                 B     0.966262706     0.010255130     0.500000000    0.00000
B1                 B     0.989744870     0.956007576     0.500000000    0.00000
B2                 B     0.043992424     0.033737294     0.500000000    0.00000
B3                 B     0.367070627     0.656411536     0.500000000    0.00000
B4                 B     0.343588464     0.710659091     0.500000000    0.00000
B5                 B     0.289340909     0.632929373     0.500000000    0.00000
H6                 H     0.994131654     0.103479711     0.500000000    0.00000
H7                 H     0.109348057     0.005868347     0.500000000    0.00000
H8                 H     0.896520289     0.890651943     0.500000000    0.00000
H9                 H     0.025642357     0.952191319     0.500000000    0.00000
H10                H     0.120610052     0.074329343     0.500000000    0.00000
H11                H     0.926548962     0.974357643     0.500000000    0.00000
H12                H     0.339201680     0.563186956     0.500000000    0.00000
H13                H     0.223985276     0.660798320     0.500000000    0.00000
H14                H     0.436813044     0.776014724     0.500000000    0.00000
H15                H     0.307690977     0.714475348     0.500000000    0.00000
H16                H     0.212723282     0.592337323     0.500000000    0.00000
H17                H     0.406784371     0.692309023     0.500000000    0.00000
H18                H     0.130330527     0.412115706     0.500000000    0.00000
H19                H     0.203002806     0.254550960     0.500000000    0.00000
H20                H     0.251499545     0.397534511     0.500000000    0.00000
H21                H     0.081833789     0.269132155     0.500000000    0.00000
H22                H     0.180439553     0.497757297     0.500000000    0.00000
H23                H     0.152893780     0.168909370     0.500000000    0.00000
H24                H     0.281785179     0.869669473     0.500000000    0.00000
H25                H     0.051548154     0.796997194     0.500000000    0.00000
H26                H     0.146034967     0.748500455     0.500000000    0.00000
H27                H     0.187298367     0.918166211     0.500000000    0.00000
H28                H     0.317317744     0.819560447     0.500000000    0.00000
H29                H     0.016015589     0.847106220     0.500000000    0.00000
H30                H     0.587884294     0.718214821     0.500000000    0.00000
H31                H     0.745449040     0.948451846     0.500000000    0.00000
H32                H     0.602465489     0.853965033     0.500000000    0.00000
H33                H     0.730867845     0.812701633     0.500000000    0.00000
H34                H     0.502242703     0.682682256     0.500000000    0.00000
H35                H     0.831090630     0.983984411     0.500000000    0.00000
C36                C     0.022137804     0.094966677     0.500000000    0.00000
C37                C     0.072828873     0.977862196     0.500000000    0.00000
C38                C     0.905033323     0.927171127     0.500000000    0.00000
C39                C     0.311195530     0.571699989     0.500000000    0.00000
C40                C     0.260504460     0.688804470     0.500000000    0.00000
C41                C     0.428300010     0.739495540     0.500000000    0.00000
C42                C     0.244076600     0.495647532     0.500000000    0.00000
C43                C     0.196028025     0.475703759     0.500000000    0.00000
C44                C     0.167973128     0.427709634     0.500000000    0.00000
C45                C     0.187868258     0.399658616     0.500000000    0.00000
C46                C     0.235873863     0.419554848     0.500000000    0.00000
C47                C     0.263989395     0.467590941     0.500000000    0.00000
C48                C     0.145465076     0.267008051     0.500000000    0.00000
C49                C     0.097459470     0.247111818     0.500000000    0.00000
C50                C     0.165360206     0.238957032     0.500000000    0.00000
C51                C     0.069343939     0.199075726     0.500000000    0.00000
C52                C     0.137305308     0.190962908     0.500000000    0.00000
C53                C     0.089256733     0.171019135     0.500000000    0.00000
C54                C     0.251570932     0.755923400     0.500000000    0.00000
C55                C     0.279675734     0.803971975     0.500000000    0.00000
C56                C     0.259736507     0.832026872     0.500000000    0.00000
C57                C     0.211790358     0.812131742     0.500000000    0.00000
C58                C     0.183680985     0.764126137     0.500000000    0.00000
C59                C     0.203601546     0.736010605     0.500000000    0.00000
C60                C     0.121542975     0.854534924     0.500000000    0.00000
C61                C     0.149652348     0.902540530     0.500000000    0.00000
C62                C     0.073596827     0.834639794     0.500000000    0.00000
C63                C     0.129731787     0.930656061     0.500000000    0.00000
C64                C     0.053657599     0.862694692     0.500000000    0.00000
C65                C     0.081762402     0.910743267     0.500000000    0.00000
C66                C     0.504352468     0.748429068     0.500000000    0.00000
C67                C     0.524296241     0.720324266     0.500000000    0.00000
C68                C     0.572290366     0.740263493     0.500000000    0.00000
C69                C     0.600341384     0.788209642     0.500000000    0.00000
C70                C     0.580445152     0.816319015     0.500000000    0.00000
C71                C     0.532409059     0.796398454     0.500000000    0.00000
C72                C     0.732991949     0.878457025     0.500000000    0.00000
C73                C     0.752888182     0.850347652     0.500000000    0.00000
C74                C     0.761042968     0.926403173     0.500000000    0.00000
C75                C     0.800924274     0.870268213     0.500000000    0.00000
C76                C     0.809037092     0.946342401     0.500000000    0.00000
C77                C     0.828980865     0.918237598     0.500000000    0.00000
I78                I     0.342916578     0.500287350     0.500000000    0.00000
I79                I     0.990416755     0.166379317     0.500000000    0.00000
I80                I     0.157370772     0.657083422     0.500000000    0.00000
I81                I     0.175962561     0.009583245     0.500000000    0.00000
I82                I     0.499712650     0.842629228     0.500000000    0.00000
I83                I     0.833620683     0.824037439     0.500000000    0.00000
N84                N     0.033737294     0.989744870     0.500000000    0.00000
N85                N     0.010255130     0.043992424     0.500000000    0.00000
N86                N     0.956007576     0.966262706     0.500000000    0.00000
N87                N     0.299596039     0.676921797     0.500000000    0.00000
N88                N     0.323078203     0.622674242     0.500000000    0.00000
N89                N     0.377325758     0.700403961     0.500000000    0.00000
N90                N     0.157043108     0.346936247     0.500000000    0.00000
N91                N     0.176290225     0.319730420     0.500000000    0.00000
N92                N     0.270087261     0.540174522     0.500000000    0.00000
N93                N     0.063246072     0.126492144     0.500000000    0.00000
N94                N     0.189893138     0.842956892     0.500000000    0.00000
N95                N     0.143440195     0.823709775     0.500000000    0.00000
N96                N     0.270087261     0.729912739     0.500000000    0.00000
N97                N     0.063246072     0.936753928     0.500000000    0.00000
N98                N     0.653063753     0.810106862     0.500000000    0.00000
N99                N     0.680269580     0.856559805     0.500000000    0.00000
N100               N     0.459825478     0.729912739     0.500000000    0.00000
N101               N     0.873507856     0.936753928     0.500000000    0.00000
O102               O     0.994553192     0.922465190     0.500000000    0.00000
O103               O     0.085742305     0.053127376     0.500000000    0.00000
O104               O     0.927911998     0.005446808     0.500000000    0.00000
O105               O     0.338780141     0.744201476     0.500000000    0.00000
O106               O     0.247591029     0.613539291     0.500000000    0.00000
O107               O     0.405421335     0.661219859     0.500000000    0.00000

loop_
_geom_bond_atom_site_label_1
_geom_bond_atom_site_label_2
_geom_bond_distance
_geom_bond_site_symmetry_2
_ccdc_geom_bond_type
B0         N86        1.33770  .  S
B0         H11        1.27338  .  S
B0         N85        1.33770  .  S
B0         O104       1.21423  .  S
B1         N84        1.33770  .  S
B1         H9         1.27338  .  S
B1         O102       1.21423  .  S
B1         N86        1.33770  .  S
B2         N84        1.33770  .  S
B2         O103       1.21423  .  S
B2         N85        1.33770  .  S
B3         O107       1.21423  .  S
B3         N88        1.33770  .  S
B3         H17        1.27338  .  S
B3         N89        1.33770  .  S
B4         N87        1.33770  .  S
B4         O105       1.21423  .  S
B4         H15        1.27338  .  S
B4         N89        1.33770  .  S
B5         O106       1.21423  .  S
B5         N87        1.33770  .  S
B5         N88        1.33770  .  S
H6         C36        1.11046  .  S
H7         C37        1.11046  .  S
H8         C38        1.11046  .  S
H9         O102       1.02108  .  S
H9         B1         1.27338  .  S
H9         N84        1.14862  .  S
H9         C37        1.37296  .  S
H10        O103       1.02108  .  S
H11        O104       1.02108  .  S
H11        B0         1.27338  .  S
H11        N86        1.14862  .  S
H11        C38        1.37296  .  S
H12        C39        1.11046  .  S
H13        C40        1.11046  .  S
H14        C41        1.11046  .  S
H15        N87        1.14862  .  S
H15        C40        1.37296  .  S
H15        O105       1.02108  .  S
H15        B4         1.27338  .  S
H16        O106       1.02108  .  S
H17        O107       1.02108  .  S
H17        B3         1.27338  .  S
H17        N89        1.14862  .  S
H17        C41        1.37296  .  S
H18        C44        1.09920  .  S
H19        C50        1.09920  .  S
H20        C46        1.09920  .  S
H21        C49        1.09920  .  S
H22        C43        1.09920  .  S
H23        C52        1.09920  .  S
H24        C56        1.09920  .  S
H25        C62        1.09920  .  S
H26        C58        1.09920  .  S
H27        C61        1.09920  .  S
H28        C55        1.09920  .  S
H29        C64        1.09920  .  S
H30        C68        1.09920  .  S
H31        C74        1.09920  .  S
H32        C70        1.09920  .  S
H33        C73        1.09920  .  S
H34        C67        1.09920  .  S
H35        C76        1.09920  .  S
C36        H6         1.11046  .  S
C36        N93        1.25000  .  S
C36        N85        1.55000  .  S
C37        H7         1.11046  .  S
C37        N97        1.25000  .  S
C37        N84        1.55000  .  S
C37        H9         1.37296  .  S
C38        N101       1.25000  .  S
C38        N86        1.55000  .  S
C38        H11        1.37296  .  S
C38        H8         1.11046  .  S
C39        N92        1.25000  .  S
C39        N88        1.55000  .  S
C39        H12        1.11046  .  S
C40        N87        1.55000  .  S
C40        H13        1.11046  .  S
C40        N96        1.25000  .  S
C40        H15        1.37296  .  S
C41        H17        1.37296  .  S
C41        N100       1.25000  .  S
C41        N89        1.55000  .  S
C41        H14        1.11046  .  S
C42        C43        1.40294  .  S
C42        C47        1.40062  .  S
C42        N92        1.30000  .  S
C43        C44        1.40129  .  S
C43        H22        1.09920  .  S
C43        C42        1.40294  .  S
C44        C43        1.40129  .  S
C44        H18        1.09920  .  S
C44        C45        1.39997  .  S
C45        N90        1.53936  .  S
C45        C44        1.39997  .  S
C45        C46        1.40178  .  S
C46        C47        1.40263  .  S
C46        C45        1.40178  .  S
C46        H20        1.09920  .  S
C47        I78        2.30475  .  S
C47        C46        1.40263  .  S
C47        C42        1.40062  .  S
C48        C49        1.40178  .  S
C48        N91        1.53936  .  S
C48        C50        1.39997  .  S
C49        C51        1.40263  .  S
C49        H21        1.09920  .  S
C49        C48        1.40178  .  S
C50        C52        1.40129  .  S
C50        C48        1.39997  .  S
C50        H19        1.09920  .  S
C51        I79        2.30475  .  S
C51        C49        1.40263  .  S
C51        C53        1.40062  .  S
C52        C53        1.40294  .  S
C52        H23        1.09920  .  S
C52        C50        1.40129  .  S
C53        C51        1.40062  .  S
C53        N93        1.30000  .  S
C53        C52        1.40294  .  S
C54        C59        1.40062  .  S
C54        N96        1.30000  .  S
C54        C55        1.40294  .  S
C55        C56        1.40129  .  S
C55        C54        1.40294  .  S
C55        H28        1.09920  .  S
C56        C57        1.39997  .  S
C56        C55        1.40129  .  S
C56        H24        1.09920  .  S
C57        N94        1.53936  .  S
C57        C58        1.40178  .  S
C57        C56        1.39997  .  S
C58        C59        1.40263  .  S
C58        C57        1.40178  .  S
C58        H26        1.09920  .  S
C59        I80        2.30475  .  S
C59        C58        1.40263  .  S
C59        C54        1.40062  .  S
C60        C62        1.39997  .  S
C60        N95        1.53936  .  S
C60        C61        1.40178  .  S
C61        C63        1.40263  .  S
C61        C60        1.40178  .  S
C61        H27        1.09920  .  S
C62        C64        1.40129  .  S
C62        H25        1.09920  .  S
C62        C60        1.39997  .  S
C63        I81        2.30475  .  S
C63        C65        1.40062  .  S
C63        C61        1.40263  .  S
C64        C62        1.40129  .  S
C64        H29        1.09920  .  S
C64        C65        1.40294  .  S
C65        C64        1.40294  .  S
C65        N97        1.30000  .  S
C65        C63        1.40062  .  S
C66        N100       1.30000  .  S
C66        C71        1.40062  .  S
C66        C67        1.40294  .  S
C67        C66        1.40294  .  S
C67        H34        1.09920  .  S
C67        C68        1.40129  .  S
C68        C69        1.39997  .  S
C68        C67        1.40129  .  S
C68        H30        1.09920  .  S
C69        N98        1.53936  .  S
C69        C70        1.40178  .  S
C69        C68        1.39997  .  S
C70        C71        1.40263  .  S
C70        C69        1.40178  .  S
C70        H32        1.09920  .  S
C71        I82        2.30475  .  S
C71        C66        1.40062  .  S
C71        C70        1.40263  .  S
C72        N99        1.53936  .  S
C72        C73        1.40178  .  S
C72        C74        1.39997  .  S
C73        H33        1.09920  .  S
C73        C75        1.40263  .  S
C73        C72        1.40178  .  S
C74        H31        1.09920  .  S
C74        C76        1.40129  .  S
C74        C72        1.39997  .  S
C75        I83        2.30475  .  S
C75        C73        1.40263  .  S
C75        C77        1.40062  .  S
C76        C77        1.40294  .  S
C76        C74        1.40129  .  S
C76        H35        1.09920  .  S
C77        N101       1.30000  .  S
C77        C76        1.40294  .  S
C77        C75        1.40062  .  S
I78        C47        2.30475  .  S
I79        C51        2.30475  .  S
I80        C59        2.30475  .  S
I81        C63        2.30475  .  S
I82        C71        2.30475  .  S
I83        C75        2.30475  .  S
N84        B2         1.33770  .  S
N84        B1         1.33770  .  S
N84        C37        1.55000  .  S
N84        H9         1.14862  .  S
N85        C36        1.55000  .  S
N85        B0         1.33770  .  S
N85        B2         1.33770  .  S
N86        B0         1.33770  .  S
N86        C38        1.55000  .  S
N86        H11        1.14862  .  S
N86        B1         1.33770  .  S
N87        C40        1.55000  .  S
N87        B5         1.33770  .  S
N87        H15        1.14862  .  S
N87        B4         1.33770  .  S
N88        B5         1.33770  .  S
N88        C39        1.55000  .  S
N88        B3         1.33770  .  S
N89        H17        1.14862  .  S
N89        B3         1.33770  .  S
N89        C41        1.55000  .  S
N89        B4         1.33770  .  S
N90        N91        1.35646  .  S
N90        C45        1.53936  .  S
N91        N90        1.35646  .  S
N91        C48        1.53936  .  S
N92        C42        1.30000  .  S
N92        C39        1.25000  .  S
N93        C36        1.25000  .  S
N93        C53        1.30000  .  S
N94        N95        1.35646  .  S
N94        C57        1.53936  .  S
N95        N94        1.35646  .  S
N95        C60        1.53936  .  S
N96        C40        1.25000  .  S
N96        C54        1.30000  .  S
N97        C65        1.30000  .  S
N97        C37        1.25000  .  S
N98        N99        1.35646  .  S
N98        C69        1.53936  .  S
N99        N98        1.35646  .  S
N99        C72        1.53936  .  S
N100       C66        1.30000  .  S
N100       C41        1.25000  .  S
N101       C77        1.30000  .  S
N101       C38        1.25000  .  S
O102       H9         1.02108  .  S
O102       B1         1.21423  .  S
O103       H10        1.02108  .  S
O103       B2         1.21423  .  S
O104       H11        1.02108  .  S
O104       B0         1.21423  .  S
O105       H15        1.02108  .  S
O105       B4         1.21423  .  S
O106       H16        1.02108  .  S
O106       B5         1.21423  .  S
O107       H17        1.02108  .  S
O107       B3         1.21423  .  S
